
---------- Begin Simulation Statistics ----------
simSeconds                                   0.024625                       # Number of seconds simulated (Second)
simTicks                                  24625336000                       # Number of ticks simulated (Tick)
finalTick                                 24625336000                       # Number of ticks from beginning of simulation (restored from checkpoints and never reset) (Tick)
simFreq                                  1000000000000                       # The number of ticks per simulated second ((Tick/Second))
hostSeconds                                    326.05                       # Real time elapsed on the host (Second)
hostTickRate                                 75526453                       # The number of ticks simulated per host second (ticks/s) ((Tick/Second))
hostMemory                                     798408                       # Number of bytes of host memory used (Byte)
simInsts                                     81135555                       # Number of instructions simulated (Count)
simOps                                      124811822                       # Number of ops (including micro ops) simulated (Count)
hostInstRate                                   248843                       # Simulator instruction rate (inst/s) ((Count/Second))
hostOpRate                                     382798                       # Simulator op (including micro ops) rate (op/s) ((Count/Second))
system.clk_domain.clock                           500                       # Clock period in ticks (Tick)
system.clk_domain.voltage_domain.voltage            1                       # Voltage in Volts (Volt)
system.cpu.numCycles                         49250673                       # Number of cpu cycles simulated (Cycle)
system.cpu.numWorkItemsStarted                      0                       # Number of work items this cpu started (Count)
system.cpu.numWorkItemsCompleted                    0                       # Number of work items this cpu completed (Count)
system.cpu.instsAdded                       168410288                       # Number of instructions added to the IQ (excludes non-spec) (Count)
system.cpu.nonSpecInstsAdded                       77                       # Number of non-speculative instructions added to the IQ (Count)
system.cpu.instsIssued                      155704789                       # Number of instructions issued (Count)
system.cpu.squashedInstsIssued                   4419                       # Number of squashed instructions issued (Count)
system.cpu.squashedInstsExamined             43598537                       # Number of squashed instructions iterated over during squash; mainly for profiling (Count)
system.cpu.squashedOperandsExamined          67474532                       # Number of squashed operands that are examined and possibly removed from graph (Count)
system.cpu.squashedNonSpecRemoved                  77                       # Number of squashed non-spec instructions that were removed (Count)
system.cpu.numIssuedDist::samples            49211073                       # Number of insts issued each cycle (Count)
system.cpu.numIssuedDist::mean               3.164019                       # Number of insts issued each cycle (Count)
system.cpu.numIssuedDist::stdev              2.195879                       # Number of insts issued each cycle (Count)
system.cpu.numIssuedDist::underflows                0      0.00%      0.00% # Number of insts issued each cycle (Count)
system.cpu.numIssuedDist::0                   9517876     19.34%     19.34% # Number of insts issued each cycle (Count)
system.cpu.numIssuedDist::1                   2660763      5.41%     24.75% # Number of insts issued each cycle (Count)
system.cpu.numIssuedDist::2                   5718844     11.62%     36.37% # Number of insts issued each cycle (Count)
system.cpu.numIssuedDist::3                   9240605     18.78%     55.15% # Number of insts issued each cycle (Count)
system.cpu.numIssuedDist::4                   8858935     18.00%     73.15% # Number of insts issued each cycle (Count)
system.cpu.numIssuedDist::5                   6008979     12.21%     85.36% # Number of insts issued each cycle (Count)
system.cpu.numIssuedDist::6                   3349897      6.81%     92.17% # Number of insts issued each cycle (Count)
system.cpu.numIssuedDist::7                   2536886      5.16%     97.32% # Number of insts issued each cycle (Count)
system.cpu.numIssuedDist::8                   1318288      2.68%    100.00% # Number of insts issued each cycle (Count)
system.cpu.numIssuedDist::overflows                 0      0.00%    100.00% # Number of insts issued each cycle (Count)
system.cpu.numIssuedDist::min_value                 0                       # Number of insts issued each cycle (Count)
system.cpu.numIssuedDist::max_value                 8                       # Number of insts issued each cycle (Count)
system.cpu.numIssuedDist::total              49211073                       # Number of insts issued each cycle (Count)
system.cpu.statFuBusy::No_OpClass                   0      0.00%      0.00% # attempts to use FU when none available (Count)
system.cpu.statFuBusy::IntAlu                       0      0.00%      0.00% # attempts to use FU when none available (Count)
system.cpu.statFuBusy::IntMult                      0      0.00%      0.00% # attempts to use FU when none available (Count)
system.cpu.statFuBusy::IntDiv                       0      0.00%      0.00% # attempts to use FU when none available (Count)
system.cpu.statFuBusy::FloatAdd                     0      0.00%      0.00% # attempts to use FU when none available (Count)
system.cpu.statFuBusy::FloatCmp                     0      0.00%      0.00% # attempts to use FU when none available (Count)
system.cpu.statFuBusy::FloatCvt                     0      0.00%      0.00% # attempts to use FU when none available (Count)
system.cpu.statFuBusy::FloatMult                    0      0.00%      0.00% # attempts to use FU when none available (Count)
system.cpu.statFuBusy::FloatMultAcc                 0      0.00%      0.00% # attempts to use FU when none available (Count)
system.cpu.statFuBusy::FloatDiv                     0      0.00%      0.00% # attempts to use FU when none available (Count)
system.cpu.statFuBusy::FloatMisc                    0      0.00%      0.00% # attempts to use FU when none available (Count)
system.cpu.statFuBusy::FloatSqrt                    0      0.00%      0.00% # attempts to use FU when none available (Count)
system.cpu.statFuBusy::SimdAdd                      0      0.00%      0.00% # attempts to use FU when none available (Count)
system.cpu.statFuBusy::SimdAddAcc                   0      0.00%      0.00% # attempts to use FU when none available (Count)
system.cpu.statFuBusy::SimdAlu                      9      0.01%      0.01% # attempts to use FU when none available (Count)
system.cpu.statFuBusy::SimdCmp                      0      0.00%      0.01% # attempts to use FU when none available (Count)
system.cpu.statFuBusy::SimdCvt                      0      0.00%      0.01% # attempts to use FU when none available (Count)
system.cpu.statFuBusy::SimdMisc                     1      0.00%      0.01% # attempts to use FU when none available (Count)
system.cpu.statFuBusy::SimdMult                     0      0.00%      0.01% # attempts to use FU when none available (Count)
system.cpu.statFuBusy::SimdMultAcc                  0      0.00%      0.01% # attempts to use FU when none available (Count)
system.cpu.statFuBusy::SimdShift                    0      0.00%      0.01% # attempts to use FU when none available (Count)
system.cpu.statFuBusy::SimdShiftAcc                 0      0.00%      0.01% # attempts to use FU when none available (Count)
system.cpu.statFuBusy::SimdDiv                      0      0.00%      0.01% # attempts to use FU when none available (Count)
system.cpu.statFuBusy::SimdSqrt                     0      0.00%      0.01% # attempts to use FU when none available (Count)
system.cpu.statFuBusy::SimdFloatAdd                 0      0.00%      0.01% # attempts to use FU when none available (Count)
system.cpu.statFuBusy::SimdFloatAlu                 0      0.00%      0.01% # attempts to use FU when none available (Count)
system.cpu.statFuBusy::SimdFloatCmp                 0      0.00%      0.01% # attempts to use FU when none available (Count)
system.cpu.statFuBusy::SimdFloatCvt                 0      0.00%      0.01% # attempts to use FU when none available (Count)
system.cpu.statFuBusy::SimdFloatDiv                 0      0.00%      0.01% # attempts to use FU when none available (Count)
system.cpu.statFuBusy::SimdFloatMisc                0      0.00%      0.01% # attempts to use FU when none available (Count)
system.cpu.statFuBusy::SimdFloatMult                0      0.00%      0.01% # attempts to use FU when none available (Count)
system.cpu.statFuBusy::SimdFloatMultAcc             0      0.00%      0.01% # attempts to use FU when none available (Count)
system.cpu.statFuBusy::SimdFloatSqrt                0      0.00%      0.01% # attempts to use FU when none available (Count)
system.cpu.statFuBusy::SimdReduceAdd                0      0.00%      0.01% # attempts to use FU when none available (Count)
system.cpu.statFuBusy::SimdReduceAlu                0      0.00%      0.01% # attempts to use FU when none available (Count)
system.cpu.statFuBusy::SimdReduceCmp                0      0.00%      0.01% # attempts to use FU when none available (Count)
system.cpu.statFuBusy::SimdFloatReduceAdd            0      0.00%      0.01% # attempts to use FU when none available (Count)
system.cpu.statFuBusy::SimdFloatReduceCmp            0      0.00%      0.01% # attempts to use FU when none available (Count)
system.cpu.statFuBusy::SimdAes                      0      0.00%      0.01% # attempts to use FU when none available (Count)
system.cpu.statFuBusy::SimdAesMix                   0      0.00%      0.01% # attempts to use FU when none available (Count)
system.cpu.statFuBusy::SimdSha1Hash                 0      0.00%      0.01% # attempts to use FU when none available (Count)
system.cpu.statFuBusy::SimdSha1Hash2                0      0.00%      0.01% # attempts to use FU when none available (Count)
system.cpu.statFuBusy::SimdSha256Hash               0      0.00%      0.01% # attempts to use FU when none available (Count)
system.cpu.statFuBusy::SimdSha256Hash2              0      0.00%      0.01% # attempts to use FU when none available (Count)
system.cpu.statFuBusy::SimdShaSigma2                0      0.00%      0.01% # attempts to use FU when none available (Count)
system.cpu.statFuBusy::SimdShaSigma3                0      0.00%      0.01% # attempts to use FU when none available (Count)
system.cpu.statFuBusy::SimdPredAlu                  0      0.00%      0.01% # attempts to use FU when none available (Count)
system.cpu.statFuBusy::MemRead                  71415     96.77%     96.79% # attempts to use FU when none available (Count)
system.cpu.statFuBusy::MemWrite                  2348      3.18%     99.97% # attempts to use FU when none available (Count)
system.cpu.statFuBusy::FloatMemRead                 5      0.01%     99.98% # attempts to use FU when none available (Count)
system.cpu.statFuBusy::FloatMemWrite               18      0.02%    100.00% # attempts to use FU when none available (Count)
system.cpu.statFuBusy::IprAccess                    0      0.00%    100.00% # attempts to use FU when none available (Count)
system.cpu.statFuBusy::InstPrefetch                 0      0.00%    100.00% # attempts to use FU when none available (Count)
system.cpu.statIssuedInstType_0::No_OpClass          247      0.00%      0.00% # Number of instructions issued per FU type, per thread (Count)
system.cpu.statIssuedInstType_0::IntAlu     111706733     71.74%     71.74% # Number of instructions issued per FU type, per thread (Count)
system.cpu.statIssuedInstType_0::IntMult           34      0.00%     71.74% # Number of instructions issued per FU type, per thread (Count)
system.cpu.statIssuedInstType_0::IntDiv            97      0.00%     71.74% # Number of instructions issued per FU type, per thread (Count)
system.cpu.statIssuedInstType_0::FloatAdd           34      0.00%     71.74% # Number of instructions issued per FU type, per thread (Count)
system.cpu.statIssuedInstType_0::FloatCmp            0      0.00%     71.74% # Number of instructions issued per FU type, per thread (Count)
system.cpu.statIssuedInstType_0::FloatCvt            0      0.00%     71.74% # Number of instructions issued per FU type, per thread (Count)
system.cpu.statIssuedInstType_0::FloatMult            0      0.00%     71.74% # Number of instructions issued per FU type, per thread (Count)
system.cpu.statIssuedInstType_0::FloatMultAcc            0      0.00%     71.74% # Number of instructions issued per FU type, per thread (Count)
system.cpu.statIssuedInstType_0::FloatDiv            0      0.00%     71.74% # Number of instructions issued per FU type, per thread (Count)
system.cpu.statIssuedInstType_0::FloatMisc            0      0.00%     71.74% # Number of instructions issued per FU type, per thread (Count)
system.cpu.statIssuedInstType_0::FloatSqrt            0      0.00%     71.74% # Number of instructions issued per FU type, per thread (Count)
system.cpu.statIssuedInstType_0::SimdAdd          378      0.00%     71.74% # Number of instructions issued per FU type, per thread (Count)
system.cpu.statIssuedInstType_0::SimdAddAcc            0      0.00%     71.74% # Number of instructions issued per FU type, per thread (Count)
system.cpu.statIssuedInstType_0::SimdAlu          172      0.00%     71.74% # Number of instructions issued per FU type, per thread (Count)
system.cpu.statIssuedInstType_0::SimdCmp            0      0.00%     71.74% # Number of instructions issued per FU type, per thread (Count)
system.cpu.statIssuedInstType_0::SimdCvt          208      0.00%     71.74% # Number of instructions issued per FU type, per thread (Count)
system.cpu.statIssuedInstType_0::SimdMisc          425      0.00%     71.74% # Number of instructions issued per FU type, per thread (Count)
system.cpu.statIssuedInstType_0::SimdMult            0      0.00%     71.74% # Number of instructions issued per FU type, per thread (Count)
system.cpu.statIssuedInstType_0::SimdMultAcc            0      0.00%     71.74% # Number of instructions issued per FU type, per thread (Count)
system.cpu.statIssuedInstType_0::SimdShift          188      0.00%     71.74% # Number of instructions issued per FU type, per thread (Count)
system.cpu.statIssuedInstType_0::SimdShiftAcc            0      0.00%     71.74% # Number of instructions issued per FU type, per thread (Count)
system.cpu.statIssuedInstType_0::SimdDiv            0      0.00%     71.74% # Number of instructions issued per FU type, per thread (Count)
system.cpu.statIssuedInstType_0::SimdSqrt            0      0.00%     71.74% # Number of instructions issued per FU type, per thread (Count)
system.cpu.statIssuedInstType_0::SimdFloatAdd            0      0.00%     71.74% # Number of instructions issued per FU type, per thread (Count)
system.cpu.statIssuedInstType_0::SimdFloatAlu            0      0.00%     71.74% # Number of instructions issued per FU type, per thread (Count)
system.cpu.statIssuedInstType_0::SimdFloatCmp            0      0.00%     71.74% # Number of instructions issued per FU type, per thread (Count)
system.cpu.statIssuedInstType_0::SimdFloatCvt            0      0.00%     71.74% # Number of instructions issued per FU type, per thread (Count)
system.cpu.statIssuedInstType_0::SimdFloatDiv            0      0.00%     71.74% # Number of instructions issued per FU type, per thread (Count)
system.cpu.statIssuedInstType_0::SimdFloatMisc            0      0.00%     71.74% # Number of instructions issued per FU type, per thread (Count)
system.cpu.statIssuedInstType_0::SimdFloatMult            0      0.00%     71.74% # Number of instructions issued per FU type, per thread (Count)
system.cpu.statIssuedInstType_0::SimdFloatMultAcc            0      0.00%     71.74% # Number of instructions issued per FU type, per thread (Count)
system.cpu.statIssuedInstType_0::SimdFloatSqrt            0      0.00%     71.74% # Number of instructions issued per FU type, per thread (Count)
system.cpu.statIssuedInstType_0::SimdReduceAdd            0      0.00%     71.74% # Number of instructions issued per FU type, per thread (Count)
system.cpu.statIssuedInstType_0::SimdReduceAlu            0      0.00%     71.74% # Number of instructions issued per FU type, per thread (Count)
system.cpu.statIssuedInstType_0::SimdReduceCmp            0      0.00%     71.74% # Number of instructions issued per FU type, per thread (Count)
system.cpu.statIssuedInstType_0::SimdFloatReduceAdd            0      0.00%     71.74% # Number of instructions issued per FU type, per thread (Count)
system.cpu.statIssuedInstType_0::SimdFloatReduceCmp            0      0.00%     71.74% # Number of instructions issued per FU type, per thread (Count)
system.cpu.statIssuedInstType_0::SimdAes            0      0.00%     71.74% # Number of instructions issued per FU type, per thread (Count)
system.cpu.statIssuedInstType_0::SimdAesMix            0      0.00%     71.74% # Number of instructions issued per FU type, per thread (Count)
system.cpu.statIssuedInstType_0::SimdSha1Hash            0      0.00%     71.74% # Number of instructions issued per FU type, per thread (Count)
system.cpu.statIssuedInstType_0::SimdSha1Hash2            0      0.00%     71.74% # Number of instructions issued per FU type, per thread (Count)
system.cpu.statIssuedInstType_0::SimdSha256Hash            0      0.00%     71.74% # Number of instructions issued per FU type, per thread (Count)
system.cpu.statIssuedInstType_0::SimdSha256Hash2            0      0.00%     71.74% # Number of instructions issued per FU type, per thread (Count)
system.cpu.statIssuedInstType_0::SimdShaSigma2            0      0.00%     71.74% # Number of instructions issued per FU type, per thread (Count)
system.cpu.statIssuedInstType_0::SimdShaSigma3            0      0.00%     71.74% # Number of instructions issued per FU type, per thread (Count)
system.cpu.statIssuedInstType_0::SimdPredAlu            0      0.00%     71.74% # Number of instructions issued per FU type, per thread (Count)
system.cpu.statIssuedInstType_0::MemRead     37807536     24.28%     96.03% # Number of instructions issued per FU type, per thread (Count)
system.cpu.statIssuedInstType_0::MemWrite      6188063      3.97%    100.00% # Number of instructions issued per FU type, per thread (Count)
system.cpu.statIssuedInstType_0::FloatMemRead          170      0.00%    100.00% # Number of instructions issued per FU type, per thread (Count)
system.cpu.statIssuedInstType_0::FloatMemWrite          504      0.00%    100.00% # Number of instructions issued per FU type, per thread (Count)
system.cpu.statIssuedInstType_0::IprAccess            0      0.00%    100.00% # Number of instructions issued per FU type, per thread (Count)
system.cpu.statIssuedInstType_0::InstPrefetch            0      0.00%    100.00% # Number of instructions issued per FU type, per thread (Count)
system.cpu.statIssuedInstType_0::total      155704789                       # Number of instructions issued per FU type, per thread (Count)
system.cpu.issueRate                         3.161475                       # Inst issue rate ((Count/Cycle))
system.cpu.fuBusy                               73796                       # FU busy when requested (Count)
system.cpu.fuBusyRate                        0.000474                       # FU busy rate (busy events/executed inst) ((Count/Count))
system.cpu.intInstQueueReads                360693490                       # Number of integer instruction queue reads (Count)
system.cpu.intInstQueueWrites               212006954                       # Number of integer instruction queue writes (Count)
system.cpu.intInstQueueWakeupAccesses       153595116                       # Number of integer instruction queue wakeup accesses (Count)
system.cpu.fpInstQueueReads                      5376                       # Number of floating instruction queue reads (Count)
system.cpu.fpInstQueueWrites                     2889                       # Number of floating instruction queue writes (Count)
system.cpu.fpInstQueueWakeupAccesses             2619                       # Number of floating instruction queue wakeup accesses (Count)
system.cpu.vecInstQueueReads                        0                       # Number of vector instruction queue reads (Count)
system.cpu.vecInstQueueWrites                       0                       # Number of vector instruction queue writes (Count)
system.cpu.vecInstQueueWakeupAccesses               0                       # Number of vector instruction queue wakeup accesses (Count)
system.cpu.intAluAccesses                   155775636                       # Number of integer alu accesses (Count)
system.cpu.fpAluAccesses                         2702                       # Number of floating point alu accesses (Count)
system.cpu.vecAluAccesses                           0                       # Number of vector alu accesses (Count)
system.cpu.numInsts                         154271213                       # Number of executed instructions (Count)
system.cpu.numLoadInsts                      37141455                       # Number of load instructions executed (Count)
system.cpu.numSquashedInsts                   1433576                       # Number of squashed instructions skipped in execute (Count)
system.cpu.numSwp                                   0                       # Number of swp insts executed (Count)
system.cpu.numNop                                   0                       # Number of nop insts executed (Count)
system.cpu.numRefs                           43281471                       # Number of memory reference insts executed (Count)
system.cpu.numBranches                        9648208                       # Number of branches executed (Count)
system.cpu.numStoreInsts                      6140016                       # Number of stores executed (Count)
system.cpu.numRate                           3.132368                       # Inst execution rate ((Count/Cycle))
system.cpu.timesIdled                             391                       # Number of times that the entire CPU went into an idle state and unscheduled itself (Count)
system.cpu.idleCycles                           39600                       # Total number of cycles that the CPU has spent unscheduled due to idling (Cycle)
system.cpu.committedInsts                    81135555                       # Number of Instructions Simulated (Count)
system.cpu.committedOps                     124811822                       # Number of Ops (including micro ops) Simulated (Count)
system.cpu.cpi                               0.607017                       # CPI: Cycles Per Instruction ((Cycle/Count))
system.cpu.totalCpi                          0.607017                       # CPI: Total CPI of All Threads ((Cycle/Count))
system.cpu.ipc                               1.647400                       # IPC: Instructions Per Cycle ((Count/Cycle))
system.cpu.totalIpc                          1.647400                       # IPC: Total IPC of All Threads ((Count/Cycle))
system.cpu.intRegfileReads                  187425191                       # Number of integer regfile reads (Count)
system.cpu.intRegfileWrites                 128965005                       # Number of integer regfile writes (Count)
system.cpu.fpRegfileReads                        4931                       # Number of floating regfile reads (Count)
system.cpu.fpRegfileWrites                       2042                       # Number of floating regfile writes (Count)
system.cpu.ccRegfileReads                    54786497                       # number of cc regfile reads (Count)
system.cpu.ccRegfileWrites                   47826430                       # number of cc regfile writes (Count)
system.cpu.miscRegfileReads                  75904824                       # number of misc regfile reads (Count)
system.cpu.MemDepUnit__0.insertedLoads       40015050                       # Number of loads inserted to the mem dependence unit. (Count)
system.cpu.MemDepUnit__0.insertedStores       6555786                       # Number of stores inserted to the mem dependence unit. (Count)
system.cpu.MemDepUnit__0.conflictingLoads     14638844                       # Number of conflicting loads. (Count)
system.cpu.MemDepUnit__0.conflictingStores       406662                       # Number of conflicting stores. (Count)
system.cpu.MemDepUnit__1.insertedLoads              0                       # Number of loads inserted to the mem dependence unit. (Count)
system.cpu.MemDepUnit__1.insertedStores             0                       # Number of stores inserted to the mem dependence unit. (Count)
system.cpu.MemDepUnit__1.conflictingLoads            0                       # Number of conflicting loads. (Count)
system.cpu.MemDepUnit__1.conflictingStores            0                       # Number of conflicting stores. (Count)
system.cpu.MemDepUnit__2.insertedLoads              0                       # Number of loads inserted to the mem dependence unit. (Count)
system.cpu.MemDepUnit__2.insertedStores             0                       # Number of stores inserted to the mem dependence unit. (Count)
system.cpu.MemDepUnit__2.conflictingLoads            0                       # Number of conflicting loads. (Count)
system.cpu.MemDepUnit__2.conflictingStores            0                       # Number of conflicting stores. (Count)
system.cpu.MemDepUnit__3.insertedLoads              0                       # Number of loads inserted to the mem dependence unit. (Count)
system.cpu.MemDepUnit__3.insertedStores             0                       # Number of stores inserted to the mem dependence unit. (Count)
system.cpu.MemDepUnit__3.conflictingLoads            0                       # Number of conflicting loads. (Count)
system.cpu.MemDepUnit__3.conflictingStores            0                       # Number of conflicting stores. (Count)
system.cpu.branchPred.lookups                12568902                       # Number of BP lookups (Count)
system.cpu.branchPred.condPredicted          12047212                       # Number of conditional branches predicted (Count)
system.cpu.branchPred.condIncorrect            699576                       # Number of conditional branches incorrect (Count)
system.cpu.branchPred.BTBLookups             11693926                       # Number of BTB lookups (Count)
system.cpu.branchPred.BTBHits                11693201                       # Number of BTB hits (Count)
system.cpu.branchPred.BTBHitRatio            0.999938                       # BTB Hit Ratio (Ratio)
system.cpu.branchPred.RASUsed                  112561                       # Number of times the RAS was used to get a target. (Count)
system.cpu.branchPred.RASIncorrect                 22                       # Number of incorrect RAS predictions. (Count)
system.cpu.branchPred.indirectLookups             590                       # Number of indirect predictor lookups. (Count)
system.cpu.branchPred.indirectHits                 95                       # Number of indirect target hits. (Count)
system.cpu.branchPred.indirectMisses              495                       # Number of indirect misses. (Count)
system.cpu.branchPred.indirectMispredicted          118                       # Number of mispredicted indirect branches. (Count)
system.cpu.commit.commitSquashedInsts        43597897                       # The number of squashed insts skipped by commit (Count)
system.cpu.commit.branchMispredicts            699305                       # The number of times a branch was mispredicted (Count)
system.cpu.commit.numCommittedDist::samples     43181555                       # Number of insts commited each cycle (Count)
system.cpu.commit.numCommittedDist::mean     2.890397                       # Number of insts commited each cycle (Count)
system.cpu.commit.numCommittedDist::stdev     3.014288                       # Number of insts commited each cycle (Count)
system.cpu.commit.numCommittedDist::underflows            0      0.00%      0.00% # Number of insts commited each cycle (Count)
system.cpu.commit.numCommittedDist::0        14370245     33.28%     33.28% # Number of insts commited each cycle (Count)
system.cpu.commit.numCommittedDist::1         6761335     15.66%     48.94% # Number of insts commited each cycle (Count)
system.cpu.commit.numCommittedDist::2          678360      1.57%     50.51% # Number of insts commited each cycle (Count)
system.cpu.commit.numCommittedDist::3         8662114     20.06%     70.57% # Number of insts commited each cycle (Count)
system.cpu.commit.numCommittedDist::4          665295      1.54%     72.11% # Number of insts commited each cycle (Count)
system.cpu.commit.numCommittedDist::5          189608      0.44%     72.55% # Number of insts commited each cycle (Count)
system.cpu.commit.numCommittedDist::6         3833045      8.88%     81.42% # Number of insts commited each cycle (Count)
system.cpu.commit.numCommittedDist::7           72489      0.17%     81.59% # Number of insts commited each cycle (Count)
system.cpu.commit.numCommittedDist::8         7949064     18.41%    100.00% # Number of insts commited each cycle (Count)
system.cpu.commit.numCommittedDist::overflows            0      0.00%    100.00% # Number of insts commited each cycle (Count)
system.cpu.commit.numCommittedDist::min_value            0                       # Number of insts commited each cycle (Count)
system.cpu.commit.numCommittedDist::max_value            8                       # Number of insts commited each cycle (Count)
system.cpu.commit.numCommittedDist::total     43181555                       # Number of insts commited each cycle (Count)
system.cpu.commit.instsCommitted             81135555                       # Number of instructions committed (Count)
system.cpu.commit.opsCommitted              124811822                       # Number of ops (including micro ops) committed (Count)
system.cpu.commit.memRefs                    34192893                       # Number of memory references committed (Count)
system.cpu.commit.loads                      29456497                       # Number of loads committed (Count)
system.cpu.commit.amos                              0                       # Number of atomic instructions committed (Count)
system.cpu.commit.membars                           0                       # Number of memory barriers committed (Count)
system.cpu.commit.branches                    8935796                       # Number of branches committed (Count)
system.cpu.commit.vectorInstructions                0                       # Number of committed Vector instructions. (Count)
system.cpu.commit.floating                       2477                       # Number of committed floating point instructions. (Count)
system.cpu.commit.integer                   124799910                       # Number of committed integer instructions. (Count)
system.cpu.commit.functionCalls                106956                       # Number of function calls committed. (Count)
system.cpu.commit.committedInstType_0::No_OpClass           55      0.00%      0.00% # Class of committed instruction (Count)
system.cpu.commit.committedInstType_0::IntAlu     90617421     72.60%     72.60% # Class of committed instruction (Count)
system.cpu.commit.committedInstType_0::IntMult           34      0.00%     72.60% # Class of committed instruction (Count)
system.cpu.commit.committedInstType_0::IntDiv           91      0.00%     72.60% # Class of committed instruction (Count)
system.cpu.commit.committedInstType_0::FloatAdd           30      0.00%     72.60% # Class of committed instruction (Count)
system.cpu.commit.committedInstType_0::FloatCmp            0      0.00%     72.60% # Class of committed instruction (Count)
system.cpu.commit.committedInstType_0::FloatCvt            0      0.00%     72.60% # Class of committed instruction (Count)
system.cpu.commit.committedInstType_0::FloatMult            0      0.00%     72.60% # Class of committed instruction (Count)
system.cpu.commit.committedInstType_0::FloatMultAcc            0      0.00%     72.60% # Class of committed instruction (Count)
system.cpu.commit.committedInstType_0::FloatDiv            0      0.00%     72.60% # Class of committed instruction (Count)
system.cpu.commit.committedInstType_0::FloatMisc            0      0.00%     72.60% # Class of committed instruction (Count)
system.cpu.commit.committedInstType_0::FloatSqrt            0      0.00%     72.60% # Class of committed instruction (Count)
system.cpu.commit.committedInstType_0::SimdAdd          374      0.00%     72.60% # Class of committed instruction (Count)
system.cpu.commit.committedInstType_0::SimdAddAcc            0      0.00%     72.60% # Class of committed instruction (Count)
system.cpu.commit.committedInstType_0::SimdAlu          156      0.00%     72.60% # Class of committed instruction (Count)
system.cpu.commit.committedInstType_0::SimdCmp            0      0.00%     72.60% # Class of committed instruction (Count)
system.cpu.commit.committedInstType_0::SimdCvt          190      0.00%     72.60% # Class of committed instruction (Count)
system.cpu.commit.committedInstType_0::SimdMisc          392      0.00%     72.60% # Class of committed instruction (Count)
system.cpu.commit.committedInstType_0::SimdMult            0      0.00%     72.60% # Class of committed instruction (Count)
system.cpu.commit.committedInstType_0::SimdMultAcc            0      0.00%     72.60% # Class of committed instruction (Count)
system.cpu.commit.committedInstType_0::SimdShift          186      0.00%     72.60% # Class of committed instruction (Count)
system.cpu.commit.committedInstType_0::SimdShiftAcc            0      0.00%     72.60% # Class of committed instruction (Count)
system.cpu.commit.committedInstType_0::SimdDiv            0      0.00%     72.60% # Class of committed instruction (Count)
system.cpu.commit.committedInstType_0::SimdSqrt            0      0.00%     72.60% # Class of committed instruction (Count)
system.cpu.commit.committedInstType_0::SimdFloatAdd            0      0.00%     72.60% # Class of committed instruction (Count)
system.cpu.commit.committedInstType_0::SimdFloatAlu            0      0.00%     72.60% # Class of committed instruction (Count)
system.cpu.commit.committedInstType_0::SimdFloatCmp            0      0.00%     72.60% # Class of committed instruction (Count)
system.cpu.commit.committedInstType_0::SimdFloatCvt            0      0.00%     72.60% # Class of committed instruction (Count)
system.cpu.commit.committedInstType_0::SimdFloatDiv            0      0.00%     72.60% # Class of committed instruction (Count)
system.cpu.commit.committedInstType_0::SimdFloatMisc            0      0.00%     72.60% # Class of committed instruction (Count)
system.cpu.commit.committedInstType_0::SimdFloatMult            0      0.00%     72.60% # Class of committed instruction (Count)
system.cpu.commit.committedInstType_0::SimdFloatMultAcc            0      0.00%     72.60% # Class of committed instruction (Count)
system.cpu.commit.committedInstType_0::SimdFloatSqrt            0      0.00%     72.60% # Class of committed instruction (Count)
system.cpu.commit.committedInstType_0::SimdReduceAdd            0      0.00%     72.60% # Class of committed instruction (Count)
system.cpu.commit.committedInstType_0::SimdReduceAlu            0      0.00%     72.60% # Class of committed instruction (Count)
system.cpu.commit.committedInstType_0::SimdReduceCmp            0      0.00%     72.60% # Class of committed instruction (Count)
system.cpu.commit.committedInstType_0::SimdFloatReduceAdd            0      0.00%     72.60% # Class of committed instruction (Count)
system.cpu.commit.committedInstType_0::SimdFloatReduceCmp            0      0.00%     72.60% # Class of committed instruction (Count)
system.cpu.commit.committedInstType_0::SimdAes            0      0.00%     72.60% # Class of committed instruction (Count)
system.cpu.commit.committedInstType_0::SimdAesMix            0      0.00%     72.60% # Class of committed instruction (Count)
system.cpu.commit.committedInstType_0::SimdSha1Hash            0      0.00%     72.60% # Class of committed instruction (Count)
system.cpu.commit.committedInstType_0::SimdSha1Hash2            0      0.00%     72.60% # Class of committed instruction (Count)
system.cpu.commit.committedInstType_0::SimdSha256Hash            0      0.00%     72.60% # Class of committed instruction (Count)
system.cpu.commit.committedInstType_0::SimdSha256Hash2            0      0.00%     72.60% # Class of committed instruction (Count)
system.cpu.commit.committedInstType_0::SimdShaSigma2            0      0.00%     72.60% # Class of committed instruction (Count)
system.cpu.commit.committedInstType_0::SimdShaSigma3            0      0.00%     72.60% # Class of committed instruction (Count)
system.cpu.commit.committedInstType_0::SimdPredAlu            0      0.00%     72.60% # Class of committed instruction (Count)
system.cpu.commit.committedInstType_0::MemRead     29456375     23.60%     96.21% # Class of committed instruction (Count)
system.cpu.commit.committedInstType_0::MemWrite      4735941      3.79%    100.00% # Class of committed instruction (Count)
system.cpu.commit.committedInstType_0::FloatMemRead          122      0.00%    100.00% # Class of committed instruction (Count)
system.cpu.commit.committedInstType_0::FloatMemWrite          455      0.00%    100.00% # Class of committed instruction (Count)
system.cpu.commit.committedInstType_0::IprAccess            0      0.00%    100.00% # Class of committed instruction (Count)
system.cpu.commit.committedInstType_0::InstPrefetch            0      0.00%    100.00% # Class of committed instruction (Count)
system.cpu.commit.committedInstType_0::total    124811822                       # Class of committed instruction (Count)
system.cpu.commit.commitEligibleSamples       7949064                       # number cycles where commit BW limit reached (Cycle)
system.cpu.dcache.demandHits::cpu.data       25382861                       # number of demand (read+write) hits (Count)
system.cpu.dcache.demandHits::total          25382861                       # number of demand (read+write) hits (Count)
system.cpu.dcache.overallHits::cpu.data      25382861                       # number of overall hits (Count)
system.cpu.dcache.overallHits::total         25382861                       # number of overall hits (Count)
system.cpu.dcache.demandMisses::cpu.data          919                       # number of demand (read+write) misses (Count)
system.cpu.dcache.demandMisses::total             919                       # number of demand (read+write) misses (Count)
system.cpu.dcache.overallMisses::cpu.data          919                       # number of overall misses (Count)
system.cpu.dcache.overallMisses::total            919                       # number of overall misses (Count)
system.cpu.dcache.demandMissLatency::cpu.data     63748999                       # number of demand (read+write) miss ticks (Tick)
system.cpu.dcache.demandMissLatency::total     63748999                       # number of demand (read+write) miss ticks (Tick)
system.cpu.dcache.overallMissLatency::cpu.data     63748999                       # number of overall miss ticks (Tick)
system.cpu.dcache.overallMissLatency::total     63748999                       # number of overall miss ticks (Tick)
system.cpu.dcache.demandAccesses::cpu.data     25383780                       # number of demand (read+write) accesses (Count)
system.cpu.dcache.demandAccesses::total      25383780                       # number of demand (read+write) accesses (Count)
system.cpu.dcache.overallAccesses::cpu.data     25383780                       # number of overall (read+write) accesses (Count)
system.cpu.dcache.overallAccesses::total     25383780                       # number of overall (read+write) accesses (Count)
system.cpu.dcache.demandMissRate::cpu.data     0.000036                       # miss rate for demand accesses (Ratio)
system.cpu.dcache.demandMissRate::total      0.000036                       # miss rate for demand accesses (Ratio)
system.cpu.dcache.overallMissRate::cpu.data     0.000036                       # miss rate for overall accesses (Ratio)
system.cpu.dcache.overallMissRate::total     0.000036                       # miss rate for overall accesses (Ratio)
system.cpu.dcache.demandAvgMissLatency::cpu.data 69367.789989                       # average overall miss latency in ticks ((Tick/Count))
system.cpu.dcache.demandAvgMissLatency::total 69367.789989                       # average overall miss latency in ticks ((Tick/Count))
system.cpu.dcache.overallAvgMissLatency::cpu.data 69367.789989                       # average overall miss latency ((Tick/Count))
system.cpu.dcache.overallAvgMissLatency::total 69367.789989                       # average overall miss latency ((Tick/Count))
system.cpu.dcache.blockedCycles::no_mshrs          424                       # number of cycles access was blocked (Cycle)
system.cpu.dcache.blockedCycles::no_targets            0                       # number of cycles access was blocked (Cycle)
system.cpu.dcache.blockedCauses::no_mshrs            9                       # number of times access was blocked (Count)
system.cpu.dcache.blockedCauses::no_targets            0                       # number of times access was blocked (Count)
system.cpu.dcache.avgBlocked::no_mshrs      47.111111                       # average number of cycles each access was blocked ((Cycle/Count))
system.cpu.dcache.avgBlocked::no_targets          nan                       # average number of cycles each access was blocked ((Cycle/Count))
system.cpu.dcache.writebacks::writebacks           40                       # number of writebacks (Count)
system.cpu.dcache.writebacks::total                40                       # number of writebacks (Count)
system.cpu.dcache.demandMshrHits::cpu.data          185                       # number of demand (read+write) MSHR hits (Count)
system.cpu.dcache.demandMshrHits::total           185                       # number of demand (read+write) MSHR hits (Count)
system.cpu.dcache.overallMshrHits::cpu.data          185                       # number of overall MSHR hits (Count)
system.cpu.dcache.overallMshrHits::total          185                       # number of overall MSHR hits (Count)
system.cpu.dcache.demandMshrMisses::cpu.data          734                       # number of demand (read+write) MSHR misses (Count)
system.cpu.dcache.demandMshrMisses::total          734                       # number of demand (read+write) MSHR misses (Count)
system.cpu.dcache.overallMshrMisses::cpu.data          734                       # number of overall MSHR misses (Count)
system.cpu.dcache.overallMshrMisses::total          734                       # number of overall MSHR misses (Count)
system.cpu.dcache.demandMshrMissLatency::cpu.data     51884000                       # number of demand (read+write) MSHR miss ticks (Tick)
system.cpu.dcache.demandMshrMissLatency::total     51884000                       # number of demand (read+write) MSHR miss ticks (Tick)
system.cpu.dcache.overallMshrMissLatency::cpu.data     51884000                       # number of overall MSHR miss ticks (Tick)
system.cpu.dcache.overallMshrMissLatency::total     51884000                       # number of overall MSHR miss ticks (Tick)
system.cpu.dcache.demandMshrMissRate::cpu.data     0.000029                       # mshr miss ratio for demand accesses (Ratio)
system.cpu.dcache.demandMshrMissRate::total     0.000029                       # mshr miss ratio for demand accesses (Ratio)
system.cpu.dcache.overallMshrMissRate::cpu.data     0.000029                       # mshr miss ratio for overall accesses (Ratio)
system.cpu.dcache.overallMshrMissRate::total     0.000029                       # mshr miss ratio for overall accesses (Ratio)
system.cpu.dcache.demandAvgMshrMissLatency::cpu.data 70686.648501                       # average overall mshr miss latency ((Tick/Count))
system.cpu.dcache.demandAvgMshrMissLatency::total 70686.648501                       # average overall mshr miss latency ((Tick/Count))
system.cpu.dcache.overallAvgMshrMissLatency::cpu.data 70686.648501                       # average overall mshr miss latency ((Tick/Count))
system.cpu.dcache.overallAvgMshrMissLatency::total 70686.648501                       # average overall mshr miss latency ((Tick/Count))
system.cpu.dcache.replacements                     60                       # number of replacements (Count)
system.cpu.dcache.ReadReq.hits::cpu.data     20647074                       # number of ReadReq hits (Count)
system.cpu.dcache.ReadReq.hits::total        20647074                       # number of ReadReq hits (Count)
system.cpu.dcache.ReadReq.misses::cpu.data          309                       # number of ReadReq misses (Count)
system.cpu.dcache.ReadReq.misses::total           309                       # number of ReadReq misses (Count)
system.cpu.dcache.ReadReq.missLatency::cpu.data     21036500                       # number of ReadReq miss ticks (Tick)
system.cpu.dcache.ReadReq.missLatency::total     21036500                       # number of ReadReq miss ticks (Tick)
system.cpu.dcache.ReadReq.accesses::cpu.data     20647383                       # number of ReadReq accesses(hits+misses) (Count)
system.cpu.dcache.ReadReq.accesses::total     20647383                       # number of ReadReq accesses(hits+misses) (Count)
system.cpu.dcache.ReadReq.missRate::cpu.data     0.000015                       # miss rate for ReadReq accesses (Ratio)
system.cpu.dcache.ReadReq.missRate::total     0.000015                       # miss rate for ReadReq accesses (Ratio)
system.cpu.dcache.ReadReq.avgMissLatency::cpu.data 68079.288026                       # average ReadReq miss latency ((Tick/Count))
system.cpu.dcache.ReadReq.avgMissLatency::total 68079.288026                       # average ReadReq miss latency ((Tick/Count))
system.cpu.dcache.ReadReq.mshrHits::cpu.data          181                       # number of ReadReq MSHR hits (Count)
system.cpu.dcache.ReadReq.mshrHits::total          181                       # number of ReadReq MSHR hits (Count)
system.cpu.dcache.ReadReq.mshrMisses::cpu.data          128                       # number of ReadReq MSHR misses (Count)
system.cpu.dcache.ReadReq.mshrMisses::total          128                       # number of ReadReq MSHR misses (Count)
system.cpu.dcache.ReadReq.mshrMissLatency::cpu.data      9954500                       # number of ReadReq MSHR miss ticks (Tick)
system.cpu.dcache.ReadReq.mshrMissLatency::total      9954500                       # number of ReadReq MSHR miss ticks (Tick)
system.cpu.dcache.ReadReq.mshrMissRate::cpu.data     0.000006                       # mshr miss rate for ReadReq accesses (Ratio)
system.cpu.dcache.ReadReq.mshrMissRate::total     0.000006                       # mshr miss rate for ReadReq accesses (Ratio)
system.cpu.dcache.ReadReq.avgMshrMissLatency::cpu.data 77769.531250                       # average ReadReq mshr miss latency ((Tick/Count))
system.cpu.dcache.ReadReq.avgMshrMissLatency::total 77769.531250                       # average ReadReq mshr miss latency ((Tick/Count))
system.cpu.dcache.WriteReq.hits::cpu.data      4735787                       # number of WriteReq hits (Count)
system.cpu.dcache.WriteReq.hits::total        4735787                       # number of WriteReq hits (Count)
system.cpu.dcache.WriteReq.misses::cpu.data          610                       # number of WriteReq misses (Count)
system.cpu.dcache.WriteReq.misses::total          610                       # number of WriteReq misses (Count)
system.cpu.dcache.WriteReq.missLatency::cpu.data     42712499                       # number of WriteReq miss ticks (Tick)
system.cpu.dcache.WriteReq.missLatency::total     42712499                       # number of WriteReq miss ticks (Tick)
system.cpu.dcache.WriteReq.accesses::cpu.data      4736397                       # number of WriteReq accesses(hits+misses) (Count)
system.cpu.dcache.WriteReq.accesses::total      4736397                       # number of WriteReq accesses(hits+misses) (Count)
system.cpu.dcache.WriteReq.missRate::cpu.data     0.000129                       # miss rate for WriteReq accesses (Ratio)
system.cpu.dcache.WriteReq.missRate::total     0.000129                       # miss rate for WriteReq accesses (Ratio)
system.cpu.dcache.WriteReq.avgMissLatency::cpu.data 70020.490164                       # average WriteReq miss latency ((Tick/Count))
system.cpu.dcache.WriteReq.avgMissLatency::total 70020.490164                       # average WriteReq miss latency ((Tick/Count))
system.cpu.dcache.WriteReq.mshrHits::cpu.data            4                       # number of WriteReq MSHR hits (Count)
system.cpu.dcache.WriteReq.mshrHits::total            4                       # number of WriteReq MSHR hits (Count)
system.cpu.dcache.WriteReq.mshrMisses::cpu.data          606                       # number of WriteReq MSHR misses (Count)
system.cpu.dcache.WriteReq.mshrMisses::total          606                       # number of WriteReq MSHR misses (Count)
system.cpu.dcache.WriteReq.mshrMissLatency::cpu.data     41929500                       # number of WriteReq MSHR miss ticks (Tick)
system.cpu.dcache.WriteReq.mshrMissLatency::total     41929500                       # number of WriteReq MSHR miss ticks (Tick)
system.cpu.dcache.WriteReq.mshrMissRate::cpu.data     0.000128                       # mshr miss rate for WriteReq accesses (Ratio)
system.cpu.dcache.WriteReq.mshrMissRate::total     0.000128                       # mshr miss rate for WriteReq accesses (Ratio)
system.cpu.dcache.WriteReq.avgMshrMissLatency::cpu.data 69190.594059                       # average WriteReq mshr miss latency ((Tick/Count))
system.cpu.dcache.WriteReq.avgMshrMissLatency::total 69190.594059                       # average WriteReq mshr miss latency ((Tick/Count))
system.cpu.dcache.power_state.pwrStateResidencyTicks::UNDEFINED  24625336000                       # Cumulative time (in ticks) in various power states (Tick)
system.cpu.dcache.tags.tagsInUse           655.880270                       # Average ticks per tags in use ((Tick/Count))
system.cpu.dcache.tags.totalRefs             25383595                       # Total number of references to valid blocks. (Count)
system.cpu.dcache.tags.sampledRefs                734                       # Sample count of references to valid blocks. (Count)
system.cpu.dcache.tags.avgRefs           34582.554496                       # Average number of references to valid blocks. ((Count/Count))
system.cpu.dcache.tags.warmupTick                   0                       # The tick when the warmup percentage was hit. (Tick)
system.cpu.dcache.tags.occupancies::cpu.data   655.880270                       # Average occupied blocks per tick, per requestor ((Count/Tick))
system.cpu.dcache.tags.avgOccs::cpu.data     0.640508                       # Average percentage of cache occupancy ((Ratio/Tick))
system.cpu.dcache.tags.avgOccs::total        0.640508                       # Average percentage of cache occupancy ((Ratio/Tick))
system.cpu.dcache.tags.occupanciesTaskId::1024          674                       # Occupied blocks per task id (Count)
system.cpu.dcache.tags.ageTaskId_1024::0           15                       # Occupied blocks per task id, per block age (Count)
system.cpu.dcache.tags.ageTaskId_1024::3            2                       # Occupied blocks per task id, per block age (Count)
system.cpu.dcache.tags.ageTaskId_1024::4          657                       # Occupied blocks per task id, per block age (Count)
system.cpu.dcache.tags.ratioOccsTaskId::1024     0.658203                       # Ratio of occupied blocks and all blocks, per task id (Ratio)
system.cpu.dcache.tags.tagAccesses           50768294                       # Number of tag accesses (Count)
system.cpu.dcache.tags.dataAccesses          50768294                       # Number of data accesses (Count)
system.cpu.dcache.tags.power_state.pwrStateResidencyTicks::UNDEFINED  24625336000                       # Cumulative time (in ticks) in various power states (Tick)
system.cpu.decode.idleCycles                 13559576                       # Number of cycles decode is idle (Cycle)
system.cpu.decode.blockedCycles               7553171                       # Number of cycles decode is blocked (Cycle)
system.cpu.decode.runCycles                  25103898                       # Number of cycles decode is running (Cycle)
system.cpu.decode.unblockCycles               2294234                       # Number of cycles decode is unblocking (Cycle)
system.cpu.decode.squashCycles                 700194                       # Number of cycles decode is squashing (Cycle)
system.cpu.decode.branchResolved             11445310                       # Number of times decode resolved a branch (Count)
system.cpu.decode.branchMispred                   387                       # Number of times decode detected a branch misprediction (Count)
system.cpu.decode.decodedInsts              175462104                       # Number of instructions handled by decode (Count)
system.cpu.decode.squashedInsts                  1755                       # Number of squashed instructions handled by decode (Count)
system.cpu.fetch.icacheStallCycles           16227617                       # Number of cycles fetch is stalled on an Icache miss (Cycle)
system.cpu.fetch.insts                      116527909                       # Number of instructions fetch has processed (Count)
system.cpu.fetch.branches                    12568902                       # Number of branches that fetch encountered (Count)
system.cpu.fetch.predictedBranches           11805857                       # Number of branches that fetch has predicted taken (Count)
system.cpu.fetch.cycles                      32282018                       # Number of cycles fetch has run and was not squashing or blocked (Cycle)
system.cpu.fetch.squashCycles                 1401150                       # Number of cycles fetch has spent squashing (Cycle)
system.cpu.fetch.miscStallCycles                  125                       # Number of cycles fetch has spent waiting on interrupts, or bad addresses, or out of MSHRs (Cycle)
system.cpu.fetch.pendingTrapStallCycles           696                       # Number of stall cycles due to pending traps (Cycle)
system.cpu.fetch.icacheWaitRetryStallCycles           42                       # Number of stall cycles due to full MSHR (Cycle)
system.cpu.fetch.cacheLines                  15970998                       # Number of cache lines fetched (Count)
system.cpu.fetch.icacheSquashes                191121                       # Number of outstanding Icache misses that were squashed (Count)
system.cpu.fetch.nisnDist::samples           49211073                       # Number of instructions fetched each cycle (Total) (Count)
system.cpu.fetch.nisnDist::mean              3.638879                       # Number of instructions fetched each cycle (Total) (Count)
system.cpu.fetch.nisnDist::stdev             3.495300                       # Number of instructions fetched each cycle (Total) (Count)
system.cpu.fetch.nisnDist::underflows               0      0.00%      0.00% # Number of instructions fetched each cycle (Total) (Count)
system.cpu.fetch.nisnDist::0                 19055736     38.72%     38.72% # Number of instructions fetched each cycle (Total) (Count)
system.cpu.fetch.nisnDist::1                  4038471      8.21%     46.93% # Number of instructions fetched each cycle (Total) (Count)
system.cpu.fetch.nisnDist::2                  1002511      2.04%     48.97% # Number of instructions fetched each cycle (Total) (Count)
system.cpu.fetch.nisnDist::3                   906348      1.84%     50.81% # Number of instructions fetched each cycle (Total) (Count)
system.cpu.fetch.nisnDist::4                   919542      1.87%     52.68% # Number of instructions fetched each cycle (Total) (Count)
system.cpu.fetch.nisnDist::5                  3925462      7.98%     60.65% # Number of instructions fetched each cycle (Total) (Count)
system.cpu.fetch.nisnDist::6                  1519740      3.09%     63.74% # Number of instructions fetched each cycle (Total) (Count)
system.cpu.fetch.nisnDist::7                  4859416      9.87%     73.62% # Number of instructions fetched each cycle (Total) (Count)
system.cpu.fetch.nisnDist::8                 12983847     26.38%    100.00% # Number of instructions fetched each cycle (Total) (Count)
system.cpu.fetch.nisnDist::overflows                0      0.00%    100.00% # Number of instructions fetched each cycle (Total) (Count)
system.cpu.fetch.nisnDist::min_value                0                       # Number of instructions fetched each cycle (Total) (Count)
system.cpu.fetch.nisnDist::max_value                8                       # Number of instructions fetched each cycle (Total) (Count)
system.cpu.fetch.nisnDist::total             49211073                       # Number of instructions fetched each cycle (Total) (Count)
system.cpu.fetch.branchRate                  0.255203                       # Number of branch fetches per cycle (Ratio)
system.cpu.fetch.rate                        2.366017                       # Number of inst fetches per cycle ((Count/Cycle))
system.cpu.icache.demandHits::cpu.inst       15970051                       # number of demand (read+write) hits (Count)
system.cpu.icache.demandHits::total          15970051                       # number of demand (read+write) hits (Count)
system.cpu.icache.overallHits::cpu.inst      15970051                       # number of overall hits (Count)
system.cpu.icache.overallHits::total         15970051                       # number of overall hits (Count)
system.cpu.icache.demandMisses::cpu.inst          947                       # number of demand (read+write) misses (Count)
system.cpu.icache.demandMisses::total             947                       # number of demand (read+write) misses (Count)
system.cpu.icache.overallMisses::cpu.inst          947                       # number of overall misses (Count)
system.cpu.icache.overallMisses::total            947                       # number of overall misses (Count)
system.cpu.icache.demandMissLatency::cpu.inst     60327500                       # number of demand (read+write) miss ticks (Tick)
system.cpu.icache.demandMissLatency::total     60327500                       # number of demand (read+write) miss ticks (Tick)
system.cpu.icache.overallMissLatency::cpu.inst     60327500                       # number of overall miss ticks (Tick)
system.cpu.icache.overallMissLatency::total     60327500                       # number of overall miss ticks (Tick)
system.cpu.icache.demandAccesses::cpu.inst     15970998                       # number of demand (read+write) accesses (Count)
system.cpu.icache.demandAccesses::total      15970998                       # number of demand (read+write) accesses (Count)
system.cpu.icache.overallAccesses::cpu.inst     15970998                       # number of overall (read+write) accesses (Count)
system.cpu.icache.overallAccesses::total     15970998                       # number of overall (read+write) accesses (Count)
system.cpu.icache.demandMissRate::cpu.inst     0.000059                       # miss rate for demand accesses (Ratio)
system.cpu.icache.demandMissRate::total      0.000059                       # miss rate for demand accesses (Ratio)
system.cpu.icache.overallMissRate::cpu.inst     0.000059                       # miss rate for overall accesses (Ratio)
system.cpu.icache.overallMissRate::total     0.000059                       # miss rate for overall accesses (Ratio)
system.cpu.icache.demandAvgMissLatency::cpu.inst 63703.801478                       # average overall miss latency in ticks ((Tick/Count))
system.cpu.icache.demandAvgMissLatency::total 63703.801478                       # average overall miss latency in ticks ((Tick/Count))
system.cpu.icache.overallAvgMissLatency::cpu.inst 63703.801478                       # average overall miss latency ((Tick/Count))
system.cpu.icache.overallAvgMissLatency::total 63703.801478                       # average overall miss latency ((Tick/Count))
system.cpu.icache.blockedCycles::no_mshrs          467                       # number of cycles access was blocked (Cycle)
system.cpu.icache.blockedCycles::no_targets            0                       # number of cycles access was blocked (Cycle)
system.cpu.icache.blockedCauses::no_mshrs            5                       # number of times access was blocked (Count)
system.cpu.icache.blockedCauses::no_targets            0                       # number of times access was blocked (Count)
system.cpu.icache.avgBlocked::no_mshrs      93.400000                       # average number of cycles each access was blocked ((Cycle/Count))
system.cpu.icache.avgBlocked::no_targets          nan                       # average number of cycles each access was blocked ((Cycle/Count))
system.cpu.icache.demandMshrHits::cpu.inst          258                       # number of demand (read+write) MSHR hits (Count)
system.cpu.icache.demandMshrHits::total           258                       # number of demand (read+write) MSHR hits (Count)
system.cpu.icache.overallMshrHits::cpu.inst          258                       # number of overall MSHR hits (Count)
system.cpu.icache.overallMshrHits::total          258                       # number of overall MSHR hits (Count)
system.cpu.icache.demandMshrMisses::cpu.inst          689                       # number of demand (read+write) MSHR misses (Count)
system.cpu.icache.demandMshrMisses::total          689                       # number of demand (read+write) MSHR misses (Count)
system.cpu.icache.overallMshrMisses::cpu.inst          689                       # number of overall MSHR misses (Count)
system.cpu.icache.overallMshrMisses::total          689                       # number of overall MSHR misses (Count)
system.cpu.icache.demandMshrMissLatency::cpu.inst     45828000                       # number of demand (read+write) MSHR miss ticks (Tick)
system.cpu.icache.demandMshrMissLatency::total     45828000                       # number of demand (read+write) MSHR miss ticks (Tick)
system.cpu.icache.overallMshrMissLatency::cpu.inst     45828000                       # number of overall MSHR miss ticks (Tick)
system.cpu.icache.overallMshrMissLatency::total     45828000                       # number of overall MSHR miss ticks (Tick)
system.cpu.icache.demandMshrMissRate::cpu.inst     0.000043                       # mshr miss ratio for demand accesses (Ratio)
system.cpu.icache.demandMshrMissRate::total     0.000043                       # mshr miss ratio for demand accesses (Ratio)
system.cpu.icache.overallMshrMissRate::cpu.inst     0.000043                       # mshr miss ratio for overall accesses (Ratio)
system.cpu.icache.overallMshrMissRate::total     0.000043                       # mshr miss ratio for overall accesses (Ratio)
system.cpu.icache.demandAvgMshrMissLatency::cpu.inst 66513.788099                       # average overall mshr miss latency ((Tick/Count))
system.cpu.icache.demandAvgMshrMissLatency::total 66513.788099                       # average overall mshr miss latency ((Tick/Count))
system.cpu.icache.overallAvgMshrMissLatency::cpu.inst 66513.788099                       # average overall mshr miss latency ((Tick/Count))
system.cpu.icache.overallAvgMshrMissLatency::total 66513.788099                       # average overall mshr miss latency ((Tick/Count))
system.cpu.icache.replacements                    276                       # number of replacements (Count)
system.cpu.icache.ReadReq.hits::cpu.inst     15970051                       # number of ReadReq hits (Count)
system.cpu.icache.ReadReq.hits::total        15970051                       # number of ReadReq hits (Count)
system.cpu.icache.ReadReq.misses::cpu.inst          947                       # number of ReadReq misses (Count)
system.cpu.icache.ReadReq.misses::total           947                       # number of ReadReq misses (Count)
system.cpu.icache.ReadReq.missLatency::cpu.inst     60327500                       # number of ReadReq miss ticks (Tick)
system.cpu.icache.ReadReq.missLatency::total     60327500                       # number of ReadReq miss ticks (Tick)
system.cpu.icache.ReadReq.accesses::cpu.inst     15970998                       # number of ReadReq accesses(hits+misses) (Count)
system.cpu.icache.ReadReq.accesses::total     15970998                       # number of ReadReq accesses(hits+misses) (Count)
system.cpu.icache.ReadReq.missRate::cpu.inst     0.000059                       # miss rate for ReadReq accesses (Ratio)
system.cpu.icache.ReadReq.missRate::total     0.000059                       # miss rate for ReadReq accesses (Ratio)
system.cpu.icache.ReadReq.avgMissLatency::cpu.inst 63703.801478                       # average ReadReq miss latency ((Tick/Count))
system.cpu.icache.ReadReq.avgMissLatency::total 63703.801478                       # average ReadReq miss latency ((Tick/Count))
system.cpu.icache.ReadReq.mshrHits::cpu.inst          258                       # number of ReadReq MSHR hits (Count)
system.cpu.icache.ReadReq.mshrHits::total          258                       # number of ReadReq MSHR hits (Count)
system.cpu.icache.ReadReq.mshrMisses::cpu.inst          689                       # number of ReadReq MSHR misses (Count)
system.cpu.icache.ReadReq.mshrMisses::total          689                       # number of ReadReq MSHR misses (Count)
system.cpu.icache.ReadReq.mshrMissLatency::cpu.inst     45828000                       # number of ReadReq MSHR miss ticks (Tick)
system.cpu.icache.ReadReq.mshrMissLatency::total     45828000                       # number of ReadReq MSHR miss ticks (Tick)
system.cpu.icache.ReadReq.mshrMissRate::cpu.inst     0.000043                       # mshr miss rate for ReadReq accesses (Ratio)
system.cpu.icache.ReadReq.mshrMissRate::total     0.000043                       # mshr miss rate for ReadReq accesses (Ratio)
system.cpu.icache.ReadReq.avgMshrMissLatency::cpu.inst 66513.788099                       # average ReadReq mshr miss latency ((Tick/Count))
system.cpu.icache.ReadReq.avgMshrMissLatency::total 66513.788099                       # average ReadReq mshr miss latency ((Tick/Count))
system.cpu.icache.power_state.pwrStateResidencyTicks::UNDEFINED  24625336000                       # Cumulative time (in ticks) in various power states (Tick)
system.cpu.icache.tags.tagsInUse           381.892585                       # Average ticks per tags in use ((Tick/Count))
system.cpu.icache.tags.totalRefs             15970740                       # Total number of references to valid blocks. (Count)
system.cpu.icache.tags.sampledRefs                689                       # Sample count of references to valid blocks. (Count)
system.cpu.icache.tags.avgRefs           23179.593614                       # Average number of references to valid blocks. ((Count/Count))
system.cpu.icache.tags.warmupTick                   0                       # The tick when the warmup percentage was hit. (Tick)
system.cpu.icache.tags.occupancies::cpu.inst   381.892585                       # Average occupied blocks per tick, per requestor ((Count/Tick))
system.cpu.icache.tags.avgOccs::cpu.inst     0.745884                       # Average percentage of cache occupancy ((Ratio/Tick))
system.cpu.icache.tags.avgOccs::total        0.745884                       # Average percentage of cache occupancy ((Ratio/Tick))
system.cpu.icache.tags.occupanciesTaskId::1024          413                       # Occupied blocks per task id (Count)
system.cpu.icache.tags.ageTaskId_1024::0           67                       # Occupied blocks per task id, per block age (Count)
system.cpu.icache.tags.ageTaskId_1024::4          346                       # Occupied blocks per task id, per block age (Count)
system.cpu.icache.tags.ratioOccsTaskId::1024     0.806641                       # Ratio of occupied blocks and all blocks, per task id (Ratio)
system.cpu.icache.tags.tagAccesses           31942685                       # Number of tag accesses (Count)
system.cpu.icache.tags.dataAccesses          31942685                       # Number of data accesses (Count)
system.cpu.icache.tags.power_state.pwrStateResidencyTicks::UNDEFINED  24625336000                       # Cumulative time (in ticks) in various power states (Tick)
system.cpu.iew.idleCycles                           0                       # Number of cycles IEW is idle (Cycle)
system.cpu.iew.squashCycles                    700194                       # Number of cycles IEW is squashing (Cycle)
system.cpu.iew.blockCycles                    5330352                       # Number of cycles IEW is blocking (Cycle)
system.cpu.iew.unblockCycles                      920                       # Number of cycles IEW is unblocking (Cycle)
system.cpu.iew.dispatchedInsts              168410365                       # Number of instructions dispatched to IQ (Count)
system.cpu.iew.dispSquashedInsts                  128                       # Number of squashed instructions skipped by dispatch (Count)
system.cpu.iew.dispLoadInsts                 40015050                       # Number of dispatched load instructions (Count)
system.cpu.iew.dispStoreInsts                 6555786                       # Number of dispatched store instructions (Count)
system.cpu.iew.dispNonSpecInsts                    26                       # Number of dispatched non-speculative instructions (Count)
system.cpu.iew.iqFullEvents                        15                       # Number of times the IQ has become full, causing a stall (Count)
system.cpu.iew.lsqFullEvents                      899                       # Number of times the LSQ has become full, causing a stall (Count)
system.cpu.iew.memOrderViolationEvents            975                       # Number of memory order violations (Count)
system.cpu.iew.predictedTakenIncorrect         513014                       # Number of branches that were predicted taken incorrectly (Count)
system.cpu.iew.predictedNotTakenIncorrect       236896                       # Number of branches that were predicted not taken incorrectly (Count)
system.cpu.iew.branchMispredicts               749910                       # Number of branch mispredicts detected at execute (Count)
system.cpu.iew.instsToCommit                154011987                       # Cumulative count of insts sent to commit (Count)
system.cpu.iew.writebackCount               153597735                       # Cumulative count of insts written-back (Count)
system.cpu.iew.producerInst                 135989317                       # Number of instructions producing a value (Count)
system.cpu.iew.consumerInst                 188855993                       # Number of instructions consuming a value (Count)
system.cpu.iew.wbRate                        3.118693                       # Insts written-back per cycle ((Count/Cycle))
system.cpu.iew.wbFanout                      0.720069                       # Average fanout of values written-back ((Count/Count))
system.cpu.interrupts.clk_domain.clock           8000                       # Clock period in ticks (Tick)
system.cpu.lsq0.forwLoads                    16493984                       # Number of loads that had data forwarded from stores (Count)
system.cpu.lsq0.squashedLoads                10558553                       # Number of loads squashed (Count)
system.cpu.lsq0.ignoredResponses                24918                       # Number of memory responses ignored because the instruction is squashed (Count)
system.cpu.lsq0.memOrderViolation                 975                       # Number of memory ordering violations (Count)
system.cpu.lsq0.squashedStores                1819390                       # Number of stores squashed (Count)
system.cpu.lsq0.rescheduledLoads                    9                       # Number of loads that were rescheduled (Count)
system.cpu.lsq0.blockedByCache                      9                       # Number of times an access to memory failed due to the cache being blocked (Count)
system.cpu.lsq0.loadToUse::samples           29456497                       # Distribution of cycle latency between the first time a load is issued and its completion (Unspecified)
system.cpu.lsq0.loadToUse::mean              2.667466                       # Distribution of cycle latency between the first time a load is issued and its completion (Unspecified)
system.cpu.lsq0.loadToUse::stdev             0.741437                       # Distribution of cycle latency between the first time a load is issued and its completion (Unspecified)
system.cpu.lsq0.loadToUse::0-9               29456334    100.00%    100.00% # Distribution of cycle latency between the first time a load is issued and its completion (Unspecified)
system.cpu.lsq0.loadToUse::10-19                    9      0.00%    100.00% # Distribution of cycle latency between the first time a load is issued and its completion (Unspecified)
system.cpu.lsq0.loadToUse::20-29                   12      0.00%    100.00% # Distribution of cycle latency between the first time a load is issued and its completion (Unspecified)
system.cpu.lsq0.loadToUse::30-39                    7      0.00%    100.00% # Distribution of cycle latency between the first time a load is issued and its completion (Unspecified)
system.cpu.lsq0.loadToUse::60-69                    4      0.00%    100.00% # Distribution of cycle latency between the first time a load is issued and its completion (Unspecified)
system.cpu.lsq0.loadToUse::70-79                    2      0.00%    100.00% # Distribution of cycle latency between the first time a load is issued and its completion (Unspecified)
system.cpu.lsq0.loadToUse::80-89                    1      0.00%    100.00% # Distribution of cycle latency between the first time a load is issued and its completion (Unspecified)
system.cpu.lsq0.loadToUse::90-99                    2      0.00%    100.00% # Distribution of cycle latency between the first time a load is issued and its completion (Unspecified)
system.cpu.lsq0.loadToUse::100-109                  2      0.00%    100.00% # Distribution of cycle latency between the first time a load is issued and its completion (Unspecified)
system.cpu.lsq0.loadToUse::110-119                  6      0.00%    100.00% # Distribution of cycle latency between the first time a load is issued and its completion (Unspecified)
system.cpu.lsq0.loadToUse::120-129                  1      0.00%    100.00% # Distribution of cycle latency between the first time a load is issued and its completion (Unspecified)
system.cpu.lsq0.loadToUse::130-139                 20      0.00%    100.00% # Distribution of cycle latency between the first time a load is issued and its completion (Unspecified)
system.cpu.lsq0.loadToUse::140-149                 17      0.00%    100.00% # Distribution of cycle latency between the first time a load is issued and its completion (Unspecified)
system.cpu.lsq0.loadToUse::150-159                  3      0.00%    100.00% # Distribution of cycle latency between the first time a load is issued and its completion (Unspecified)
system.cpu.lsq0.loadToUse::160-169                 23      0.00%    100.00% # Distribution of cycle latency between the first time a load is issued and its completion (Unspecified)
system.cpu.lsq0.loadToUse::170-179                  8      0.00%    100.00% # Distribution of cycle latency between the first time a load is issued and its completion (Unspecified)
system.cpu.lsq0.loadToUse::180-189                  7      0.00%    100.00% # Distribution of cycle latency between the first time a load is issued and its completion (Unspecified)
system.cpu.lsq0.loadToUse::190-199                 28      0.00%    100.00% # Distribution of cycle latency between the first time a load is issued and its completion (Unspecified)
system.cpu.lsq0.loadToUse::200-209                  3      0.00%    100.00% # Distribution of cycle latency between the first time a load is issued and its completion (Unspecified)
system.cpu.lsq0.loadToUse::210-219                  2      0.00%    100.00% # Distribution of cycle latency between the first time a load is issued and its completion (Unspecified)
system.cpu.lsq0.loadToUse::220-229                  1      0.00%    100.00% # Distribution of cycle latency between the first time a load is issued and its completion (Unspecified)
system.cpu.lsq0.loadToUse::230-239                  1      0.00%    100.00% # Distribution of cycle latency between the first time a load is issued and its completion (Unspecified)
system.cpu.lsq0.loadToUse::overflows                4      0.00%    100.00% # Distribution of cycle latency between the first time a load is issued and its completion (Unspecified)
system.cpu.lsq0.loadToUse::min_value                2                       # Distribution of cycle latency between the first time a load is issued and its completion (Unspecified)
system.cpu.lsq0.loadToUse::max_value              604                       # Distribution of cycle latency between the first time a load is issued and its completion (Unspecified)
system.cpu.lsq0.loadToUse::total             29456497                       # Distribution of cycle latency between the first time a load is issued and its completion (Unspecified)
system.cpu.mmu.dtb.rdAccesses                37141436                       # TLB accesses on read requests (Count)
system.cpu.mmu.dtb.wrAccesses                 6140017                       # TLB accesses on write requests (Count)
system.cpu.mmu.dtb.rdMisses                        72                       # TLB misses on read requests (Count)
system.cpu.mmu.dtb.wrMisses                        37                       # TLB misses on write requests (Count)
system.cpu.mmu.dtb.walker.power_state.pwrStateResidencyTicks::UNDEFINED  24625336000                       # Cumulative time (in ticks) in various power states (Tick)
system.cpu.mmu.itb.rdAccesses                       0                       # TLB accesses on read requests (Count)
system.cpu.mmu.itb.wrAccesses                15971123                       # TLB accesses on write requests (Count)
system.cpu.mmu.itb.rdMisses                         0                       # TLB misses on read requests (Count)
system.cpu.mmu.itb.wrMisses                       183                       # TLB misses on write requests (Count)
system.cpu.mmu.itb.walker.power_state.pwrStateResidencyTicks::UNDEFINED  24625336000                       # Cumulative time (in ticks) in various power states (Tick)
system.cpu.power_state.pwrStateResidencyTicks::ON  24625336000                       # Cumulative time (in ticks) in various power states (Tick)
system.cpu.rename.squashCycles                 700194                       # Number of cycles rename is squashing (Cycle)
system.cpu.rename.idleCycles                 14232511                       # Number of cycles rename is idle (Cycle)
[...]
system.mem_ctrls.requestorReadAvgLat::cpu.inst     26451.56                       # Per-requestor read average memory access latency ((Tick/Count))
system.mem_ctrls.requestorReadAvgLat::cpu.data     25525.74                       # Per-requestor read average memory access latency ((Tick/Count))
system.mem_ctrls.dram.bytesRead::cpu.inst        38976                       # Number of bytes read from this memory (Byte)
system.mem_ctrls.dram.bytesRead::cpu.data        45376                       # Number of bytes read from this memory (Byte)
system.mem_ctrls.dram.bytesRead::total          84352                       # Number of bytes read from this memory (Byte)
system.mem_ctrls.dram.bytesInstRead::cpu.inst        38976                       # Number of instructions bytes read from this memory (Byte)
system.mem_ctrls.dram.bytesInstRead::total        38976                       # Number of instructions bytes read from this memory (Byte)
system.mem_ctrls.dram.numReads::cpu.inst          609                       # Number of read requests responded to by this memory (Count)
system.mem_ctrls.dram.numReads::cpu.data          709                       # Number of read requests responded to by this memory (Count)
system.mem_ctrls.dram.numReads::total            1318                       # Number of read requests responded to by this memory (Count)
system.mem_ctrls.dram.bwRead::cpu.inst        1582760                       # Total read bandwidth from this memory ((Byte/Second))
system.mem_ctrls.dram.bwRead::cpu.data        1842655                       # Total read bandwidth from this memory ((Byte/Second))
system.mem_ctrls.dram.bwRead::total           3425415                       # Total read bandwidth from this memory ((Byte/Second))
system.mem_ctrls.dram.bwInstRead::cpu.inst      1582760                       # Instruction read bandwidth from this memory ((Byte/Second))
system.mem_ctrls.dram.bwInstRead::total       1582760                       # Instruction read bandwidth from this memory ((Byte/Second))
system.mem_ctrls.dram.bwTotal::cpu.inst       1582760                       # Total bandwidth to/from this memory ((Byte/Second))
system.mem_ctrls.dram.bwTotal::cpu.data       1842655                       # Total bandwidth to/from this memory ((Byte/Second))
system.mem_ctrls.dram.bwTotal::total          3425415                       # Total bandwidth to/from this memory ((Byte/Second))
system.mem_ctrls.dram.readBursts                 1318                       # Number of DRAM read bursts (Count)
system.mem_ctrls.dram.writeBursts                   0                       # Number of DRAM write bursts (Count)
system.mem_ctrls.dram.perBankRdBursts::0          301                       # Per bank write bursts (Count)
system.mem_ctrls.dram.perBankRdBursts::1          141                       # Per bank write bursts (Count)
system.mem_ctrls.dram.perBankRdBursts::2           39                       # Per bank write bursts (Count)
system.mem_ctrls.dram.perBankRdBursts::3           12                       # Per bank write bursts (Count)
system.mem_ctrls.dram.perBankRdBursts::4            7                       # Per bank write bursts (Count)
system.mem_ctrls.dram.perBankRdBursts::5           10                       # Per bank write bursts (Count)
system.mem_ctrls.dram.perBankRdBursts::6           62                       # Per bank write bursts (Count)
system.mem_ctrls.dram.perBankRdBursts::7           47                       # Per bank write bursts (Count)
system.mem_ctrls.dram.perBankRdBursts::8           45                       # Per bank write bursts (Count)
system.mem_ctrls.dram.perBankRdBursts::9           23                       # Per bank write bursts (Count)
system.mem_ctrls.dram.perBankRdBursts::10           84                       # Per bank write bursts (Count)
system.mem_ctrls.dram.perBankRdBursts::11           53                       # Per bank write bursts (Count)
system.mem_ctrls.dram.perBankRdBursts::12           80                       # Per bank write bursts (Count)
system.mem_ctrls.dram.perBankRdBursts::13           88                       # Per bank write bursts (Count)
system.mem_ctrls.dram.perBankRdBursts::14          147                       # Per bank write bursts (Count)
system.mem_ctrls.dram.perBankRdBursts::15          179                       # Per bank write bursts (Count)
system.mem_ctrls.dram.perBankWrBursts::0            0                       # Per bank write bursts (Count)
system.mem_ctrls.dram.perBankWrBursts::1            0                       # Per bank write bursts (Count)
system.mem_ctrls.dram.perBankWrBursts::2            0                       # Per bank write bursts (Count)
system.mem_ctrls.dram.perBankWrBursts::3            0                       # Per bank write bursts (Count)
system.mem_ctrls.dram.perBankWrBursts::4            0                       # Per bank write bursts (Count)
system.mem_ctrls.dram.perBankWrBursts::5            0                       # Per bank write bursts (Count)
system.mem_ctrls.dram.perBankWrBursts::6            0                       # Per bank write bursts (Count)
system.mem_ctrls.dram.perBankWrBursts::7            0                       # Per bank write bursts (Count)
system.mem_ctrls.dram.perBankWrBursts::8            0                       # Per bank write bursts (Count)
system.mem_ctrls.dram.perBankWrBursts::9            0                       # Per bank write bursts (Count)
system.mem_ctrls.dram.perBankWrBursts::10            0                       # Per bank write bursts (Count)
system.mem_ctrls.dram.perBankWrBursts::11            0                       # Per bank write bursts (Count)
system.mem_ctrls.dram.perBankWrBursts::12            0                       # Per bank write bursts (Count)
system.mem_ctrls.dram.perBankWrBursts::13            0                       # Per bank write bursts (Count)
system.mem_ctrls.dram.perBankWrBursts::14            0                       # Per bank write bursts (Count)
system.mem_ctrls.dram.perBankWrBursts::15            0                       # Per bank write bursts (Count)
system.mem_ctrls.dram.totQLat                 9494250                       # Total ticks spent queuing (Tick)
system.mem_ctrls.dram.totBusLat               6590000                       # Total ticks spent in databus transfers (Tick)
system.mem_ctrls.dram.totMemAccLat           34206750                       # Total ticks spent from burst creation until serviced by the DRAM (Tick)
system.mem_ctrls.dram.avgQLat                 7203.53                       # Average queueing delay per DRAM burst ((Tick/Count))
system.mem_ctrls.dram.avgBusLat               5000.00                       # Average bus latency per DRAM burst ((Tick/Count))
system.mem_ctrls.dram.avgMemAccLat           25953.53                       # Average memory access latency per DRAM burst ((Tick/Count))
system.mem_ctrls.dram.readRowHits                1084                       # Number of row buffer hits during reads (Count)
system.mem_ctrls.dram.writeRowHits                  0                       # Number of row buffer hits during writes (Count)
system.mem_ctrls.dram.readRowHitRate            82.25                       # Row buffer hit rate for reads (Ratio)
system.mem_ctrls.dram.writeRowHitRate             nan                       # Row buffer hit rate for writes (Ratio)
system.mem_ctrls.dram.bytesPerActivate::samples          222                       # Bytes accessed per row activation (Byte)
system.mem_ctrls.dram.bytesPerActivate::mean   368.432432                       # Bytes accessed per row activation (Byte)
system.mem_ctrls.dram.bytesPerActivate::gmean   213.561430                       # Bytes accessed per row activation (Byte)
system.mem_ctrls.dram.bytesPerActivate::stdev   368.253051                       # Bytes accessed per row activation (Byte)
system.mem_ctrls.dram.bytesPerActivate::0-127           71     31.98%     31.98% # Bytes accessed per row activation (Byte)
system.mem_ctrls.dram.bytesPerActivate::128-255           48     21.62%     53.60% # Bytes accessed per row activation (Byte)
system.mem_ctrls.dram.bytesPerActivate::256-383           29     13.06%     66.67% # Bytes accessed per row activation (Byte)
system.mem_ctrls.dram.bytesPerActivate::384-511            8      3.60%     70.27% # Bytes accessed per row activation (Byte)
system.mem_ctrls.dram.bytesPerActivate::512-639            9      4.05%     74.32% # Bytes accessed per row activation (Byte)
system.mem_ctrls.dram.bytesPerActivate::640-767           10      4.50%     78.83% # Bytes accessed per row activation (Byte)
system.mem_ctrls.dram.bytesPerActivate::768-895            1      0.45%     79.28% # Bytes accessed per row activation (Byte)
system.mem_ctrls.dram.bytesPerActivate::896-1023            4      1.80%     81.08% # Bytes accessed per row activation (Byte)
system.mem_ctrls.dram.bytesPerActivate::1024-1151           42     18.92%    100.00% # Bytes accessed per row activation (Byte)
system.mem_ctrls.dram.bytesPerActivate::total          222                       # Bytes accessed per row activation (Byte)
system.mem_ctrls.dram.bytesRead                 84352                       # Total bytes read (Byte)
system.mem_ctrls.dram.bytesWritten                  0                       # Total bytes written (Byte)
system.mem_ctrls.dram.avgRdBW                3.425415                       # Average DRAM read bandwidth in MiBytes/s ((Byte/Second))
system.mem_ctrls.dram.avgWrBW                       0                       # Average DRAM write bandwidth in MiBytes/s ((Byte/Second))
system.mem_ctrls.dram.peakBW                 12800.00                       # Theoretical peak bandwidth in MiByte/s ((Byte/Second))
system.mem_ctrls.dram.busUtil                    0.03                       # Data bus utilization in percentage (Ratio)
system.mem_ctrls.dram.busUtilRead                0.03                       # Data bus utilization in percentage for reads (Ratio)
system.mem_ctrls.dram.busUtilWrite               0.00                       # Data bus utilization in percentage for writes (Ratio)
system.mem_ctrls.dram.pageHitRate               82.25                       # Row buffer hit rate, read and write combined (Ratio)
system.mem_ctrls.dram.power_state.pwrStateResidencyTicks::UNDEFINED  24625336000                       # Cumulative time (in ticks) in various power states (Tick)
system.mem_ctrls.dram.rank0.actEnergy          642600                       # Energy for activate commands per rank (pJ) (Joule)
system.mem_ctrls.dram.rank0.preEnergy          322575                       # Energy for precharge commands per rank (pJ) (Joule)
system.mem_ctrls.dram.rank0.readEnergy        4419660                       # Energy for read commands per rank (pJ) (Joule)
system.mem_ctrls.dram.rank0.writeEnergy             0                       # Energy for write commands per rank (pJ) (Joule)
system.mem_ctrls.dram.rank0.refreshEnergy 1943491680.000000                       # Energy for refresh commands per rank (pJ) (Joule)
system.mem_ctrls.dram.rank0.actBackEnergy    392792700                       # Energy for active background per rank (pJ) (Joule)
system.mem_ctrls.dram.rank0.preBackEnergy   9125356320                       # Energy for precharge background per rank (pJ) (Joule)
system.mem_ctrls.dram.rank0.actPowerDownEnergy            0                       # Energy for active power-down per rank (pJ) (Joule)
system.mem_ctrls.dram.rank0.prePowerDownEnergy            0                       # Energy for precharge power-down per rank (pJ) (Joule)
system.mem_ctrls.dram.rank0.selfRefreshEnergy            0                       # Energy for self refresh per rank (pJ) (Joule)
system.mem_ctrls.dram.rank0.totalEnergy   11467025535                       # Total energy per rank (pJ) (Joule)
system.mem_ctrls.dram.rank0.averagePower   465.659658                       # Core power per rank (mW) (Watt)
system.mem_ctrls.dram.rank0.totalIdleTime            0                       # Total Idle time Per DRAM Rank (Tick)
system.mem_ctrls.dram.rank0.pwrStateTime::IDLE  23720135500                       # Time in different power states (Tick)
system.mem_ctrls.dram.rank0.pwrStateTime::REF    822120000                       # Time in different power states (Tick)
system.mem_ctrls.dram.rank0.pwrStateTime::SREF            0                       # Time in different power states (Tick)
system.mem_ctrls.dram.rank0.pwrStateTime::PRE_PDN            0                       # Time in different power states (Tick)
system.mem_ctrls.dram.rank0.pwrStateTime::ACT     83080500                       # Time in different power states (Tick)
system.mem_ctrls.dram.rank0.pwrStateTime::ACT_PDN            0                       # Time in different power states (Tick)
system.mem_ctrls.dram.rank1.actEnergy         1028160                       # Energy for activate commands per rank (pJ) (Joule)
system.mem_ctrls.dram.rank1.preEnergy          519915                       # Energy for precharge commands per rank (pJ) (Joule)
system.mem_ctrls.dram.rank1.readEnergy        4990860                       # Energy for read commands per rank (pJ) (Joule)
system.mem_ctrls.dram.rank1.writeEnergy             0                       # Energy for write commands per rank (pJ) (Joule)
system.mem_ctrls.dram.rank1.refreshEnergy 1943491680.000000                       # Energy for refresh commands per rank (pJ) (Joule)
system.mem_ctrls.dram.rank1.actBackEnergy    392999040                       # Energy for active background per rank (pJ) (Joule)
system.mem_ctrls.dram.rank1.preBackEnergy   9125182560                       # Energy for precharge background per rank (pJ) (Joule)
system.mem_ctrls.dram.rank1.actPowerDownEnergy            0                       # Energy for active power-down per rank (pJ) (Joule)
system.mem_ctrls.dram.rank1.prePowerDownEnergy            0                       # Energy for precharge power-down per rank (pJ) (Joule)
system.mem_ctrls.dram.rank1.selfRefreshEnergy            0                       # Energy for self refresh per rank (pJ) (Joule)
system.mem_ctrls.dram.rank1.totalEnergy   11468212215                       # Total energy per rank (pJ) (Joule)
system.mem_ctrls.dram.rank1.averagePower   465.707847                       # Core power per rank (mW) (Watt)
system.mem_ctrls.dram.rank1.totalIdleTime            0                       # Total Idle time Per DRAM Rank (Tick)
system.mem_ctrls.dram.rank1.pwrStateTime::IDLE  23719713250                       # Time in different power states (Tick)
system.mem_ctrls.dram.rank1.pwrStateTime::REF    822120000                       # Time in different power states (Tick)
system.mem_ctrls.dram.rank1.pwrStateTime::SREF            0                       # Time in different power states (Tick)
system.mem_ctrls.dram.rank1.pwrStateTime::PRE_PDN            0                       # Time in different power states (Tick)
system.mem_ctrls.dram.rank1.pwrStateTime::ACT     83502750                       # Time in different power states (Tick)
system.mem_ctrls.dram.rank1.pwrStateTime::ACT_PDN            0                       # Time in different power states (Tick)
system.mem_ctrls.power_state.pwrStateResidencyTicks::UNDEFINED  24625336000                       # Cumulative time (in ticks) in various power states (Tick)
system.membus.transDist::ReadResp                 732                       # Transaction distribution (Count)
system.membus.transDist::ReadExReq                586                       # Transaction distribution (Count)
system.membus.transDist::ReadExResp               586                       # Transaction distribution (Count)
system.membus.transDist::ReadSharedReq            732                       # Transaction distribution (Count)
system.membus.pktCount_system.l2cache.mem_side_port::system.mem_ctrls.port         2636                       # Packet count per connected requestor and responder (Count)
system.membus.pktCount_system.l2cache.mem_side_port::total         2636                       # Packet count per connected requestor and responder (Count)
system.membus.pktCount::total                    2636                       # Packet count per connected requestor and responder (Count)
system.membus.pktSize_system.l2cache.mem_side_port::system.mem_ctrls.port        84352                       # Cumulative packet size per connected requestor and responder (Byte)
system.membus.pktSize_system.l2cache.mem_side_port::total        84352                       # Cumulative packet size per connected requestor and responder (Byte)
system.membus.pktSize::total                    84352                       # Cumulative packet size per connected requestor and responder (Byte)
system.membus.snoops                                0                       # Total snoops (Count)
system.membus.snoopTraffic                          0                       # Total snoop traffic (Byte)
system.membus.snoopFanout::samples               1318                       # Request fanout histogram (Count)
system.membus.snoopFanout::mean                     0                       # Request fanout histogram (Count)
system.membus.snoopFanout::stdev                    0                       # Request fanout histogram (Count)
system.membus.snoopFanout::underflows               0      0.00%      0.00% # Request fanout histogram (Count)
system.membus.snoopFanout::0                     1318    100.00%    100.00% # Request fanout histogram (Count)
system.membus.snoopFanout::1                        0      0.00%    100.00% # Request fanout histogram (Count)
system.membus.snoopFanout::overflows                0      0.00%    100.00% # Request fanout histogram (Count)
system.membus.snoopFanout::min_value                0                       # Request fanout histogram (Count)
system.membus.snoopFanout::max_value                0                       # Request fanout histogram (Count)
system.membus.snoopFanout::total                 1318                       # Request fanout histogram (Count)
system.membus.power_state.pwrStateResidencyTicks::UNDEFINED  24625336000                       # Cumulative time (in ticks) in various power states (Tick)
system.membus.reqLayer2.occupancy              659000                       # Layer occupancy (ticks) (Tick)
system.membus.reqLayer2.utilization               0.0                       # Layer utilization (Ratio)
system.membus.respLayer1.occupancy            3583750                       # Layer occupancy (ticks) (Tick)
system.membus.respLayer1.utilization              0.0                       # Layer utilization (Ratio)
system.membus.snoop_filter.totRequests           1318                       # Total number of requests made to the snoop filter. (Count)
system.membus.snoop_filter.hitSingleRequests            0                       # Number of requests hitting in the snoop filter with a single holder of the requested data. (Count)
system.membus.snoop_filter.hitMultiRequests            0                       # Number of requests hitting in the snoop filter with multiple (>1) holders of the requested data. (Count)
system.membus.snoop_filter.totSnoops                0                       # Total number of snoops made to the snoop filter. (Count)
system.membus.snoop_filter.hitSingleSnoops            0                       # Number of snoops hitting in the snoop filter with a single holder of the requested data. (Count)
system.membus.snoop_filter.hitMultiSnoops            0                       # Number of snoops hitting in the snoop filter with multiple (>1) holders of the requested data. (Count)
system.workload.inst.arm                            0                       # number of arm instructions executed (Count)
system.workload.inst.quiesce                        0                       # number of quiesce instructions executed (Count)

---------- End Simulation Statistics   ----------
